     5 
Profile.   1 HEAT OF FORMATION =    -8.689 KCAL
    C       -0.00098        0.00100       -0.00009
    H        1.11257       -0.00281        0.00167
    H       -0.36616        1.05358        0.00125
    H       -0.36617       -0.53313        0.91582
    H       -0.36509       -0.53104       -0.91726
     5 
Profile.   2 HEAT OF FORMATION =    -8.598 KCAL
    C       -0.00408        0.00239       -0.00045
    H        1.11175       -0.01019        0.00333
    H       -0.35653        1.05736        0.00292
    H       -0.35160       -0.53881        0.91491
    H       -0.35163       -0.53826       -0.91549
     5 
Profile.   3 HEAT OF FORMATION =    -8.381 KCAL
    C       -0.00711        0.00371       -0.00079
    H        1.11078       -0.01739        0.00495
    H       -0.34707        1.06077        0.00456
    H       -0.33720       -0.54403        0.91346
    H       -0.33832       -0.54500       -0.91321
     5 
Profile.   4 HEAT OF FORMATION =    -8.048 KCAL
    C       -0.01003        0.00496       -0.00112
    H        1.10967       -0.02429        0.00650
    H       -0.33796        1.06381        0.00614
    H       -0.32330       -0.54882        0.91167
    H       -0.32544       -0.55124       -0.91062
     5 
Profile.   5 HEAT OF FORMATION =    -7.620 KCAL
    C       -0.01277        0.00613       -0.00143
    H        1.10845       -0.03077        0.00796
    H       -0.32934        1.06651        0.00762
    H       -0.31017       -0.55318        0.90978
    H       -0.31327       -0.55699       -0.90795
     5 
Profile.   6 HEAT OF FORMATION =    -7.127 KCAL
    C       -0.01529        0.00720       -0.00172
    H        1.10717       -0.03669        0.00929
    H       -0.32139        1.06891        0.00900
    H       -0.29811       -0.55716        0.90800
    H       -0.30209       -0.56224       -0.90545
     5 
Profile.   7 HEAT OF FORMATION =    -6.609 KCAL
    C       -0.01752        0.00817       -0.00198
    H        1.10589       -0.04195        0.01047
    H       -0.31422        1.07102        0.01024
    H       -0.28736       -0.56079        0.90655
    H       -0.29211       -0.56701       -0.90332
     5 
Profile.   8 HEAT OF FORMATION =    -6.107 KCAL
    C       -0.01943        0.00903       -0.00221
    H        1.10467       -0.04645        0.01148
    H       -0.30798        1.07289        0.01132
    H       -0.27815       -0.56409        0.90560
    H       -0.28355       -0.57131       -0.90174
     5 
Profile.   9 HEAT OF FORMATION =    -5.661 KCAL
    C       -0.02100        0.00977       -0.00240
    H        1.10358       -0.05009        0.01230
    H       -0.30275        1.07455        0.01224
    H       -0.27066       -0.56707        0.90527
    H       -0.27657       -0.57513       -0.90086
     5 
Profile.  10 HEAT OF FORMATION =    -5.302 KCAL
    C       -0.02219        0.01037       -0.00255
    H        1.10268       -0.05281        0.01292
    H       -0.29864        1.07598        0.01296
    H       -0.26502       -0.56970        0.90561
    H       -0.27131       -0.57842       -0.90072
     5 
Profile.  11 HEAT OF FORMATION =    -5.054 KCAL
    C       -0.02298        0.01083       -0.00266
    H        1.10201       -0.05456        0.01332
    H       -0.29571        1.07719        0.01349
    H       -0.26132       -0.57191        0.90660
    H       -0.26785       -0.58112       -0.90133
     5 
Profile.  12 HEAT OF FORMATION =    -4.927 KCAL
    C       -0.02338        0.01113       -0.00273
    H        1.10160       -0.05530        0.01350
    H       -0.29401        1.07815        0.01381
    H       -0.25960       -0.57364        0.90817
    H       -0.26622       -0.58316       -0.90260
     5 
Profile.  13 HEAT OF FORMATION =    -4.926 KCAL
    C       -0.02337        0.01125       -0.00275
    H        1.10145       -0.05503        0.01345
    H       -0.29356        1.07881        0.01391
    H       -0.25987       -0.57477        0.91014
    H       -0.26643       -0.58441       -0.90439
     5 
Profile.  14 HEAT OF FORMATION =    -5.043 KCAL
    C       -0.02297        0.01119       -0.00272
    H        1.10157       -0.05375        0.01317
    H       -0.29436        1.07912        0.01379
    H       -0.26206       -0.57521        0.91236
    H       -0.26843       -0.58479       -0.90655
     5 
Profile.  15 HEAT OF FORMATION =    -5.267 KCAL
    C       -0.02219        0.01094       -0.00265
    H        1.10194       -0.05150        0.01267
    H       -0.29639        1.07903        0.01347
    H       -0.26610       -0.57487        0.91463
    H       -0.27213       -0.58421       -0.90889
     5 
Profile.  16 HEAT OF FORMATION =    -5.585 KCAL
    C       -0.02105        0.01048       -0.00253
    H        1.10252       -0.04832        0.01196
    H       -0.29960        1.07849        0.01293
    H       -0.27188       -0.57364        0.91676
    H       -0.27744       -0.58258       -0.91120
     5 
Profile.  17 HEAT OF FORMATION =    -5.978 KCAL
    C       -0.01958        0.00982       -0.00237
    H        1.10328       -0.04428        0.01105
    H       -0.30394        1.07744        0.01219
    H       -0.27924       -0.57148        0.91856
    H       -0.28421       -0.57984       -0.91331
     5 
Profile.  18 HEAT OF FORMATION =    -6.425 KCAL
    C       -0.01779        0.00897       -0.00216
    H        1.10417       -0.03946        0.00996
    H       -0.30933        1.07585        0.01127
    H       -0.28804       -0.56834        0.91987
    H       -0.29232       -0.57598       -0.91505
     5 
Profile.  19 HEAT OF FORMATION =    -6.902 KCAL
    C       -0.01573        0.00793       -0.00192
    H        1.10517       -0.03395        0.00870
    H       -0.31569        1.07369        0.01016
    H       -0.29809       -0.56423        0.92056
    H       -0.30159       -0.57100       -0.91630
     5 
Profile.  20 HEAT OF FORMATION =    -7.380 KCAL
    C       -0.01343        0.00672       -0.00164
    H        1.10623       -0.02785        0.00730
    H       -0.32291        1.07096        0.00890
    H       -0.30919       -0.55917        0.92056
    H       -0.31184       -0.56495       -0.91696
     5 
Profile.  21 HEAT OF FORMATION =    -7.830 KCAL
    C       -0.01094        0.00536       -0.00133
    H        1.10733       -0.02127        0.00578
    H       -0.33087        1.06767        0.00751
    H       -0.32115       -0.55324        0.91983
    H       -0.32289       -0.55792       -0.91699
     5 
Profile.  22 HEAT OF FORMATION =    -8.220 KCAL
    C       -0.00829        0.00388       -0.00100
    H        1.10845       -0.01433        0.00417
    H       -0.33944        1.06388        0.00599
    H       -0.33377       -0.54654        0.91839
    H       -0.33457       -0.55004       -0.91640
     5 
Profile.  23 HEAT OF FORMATION =    -8.523 KCAL
    C       -0.00552        0.00230       -0.00065
    H        1.10957       -0.00715        0.00250
    H       -0.34849        1.05963        0.00439
    H       -0.34685       -0.53922        0.91631
    H       -0.34669       -0.54147       -0.91523
     5 
Profile.  24 HEAT OF FORMATION =    -8.712 KCAL
    C       -0.00268        0.00067       -0.00029
    H        1.11067        0.00015        0.00079
    H       -0.35787        1.05502        0.00272
    H       -0.36019       -0.53145        0.91370
    H       -0.35906       -0.53239       -0.91358
     5 
Profile.  25 HEAT OF FORMATION =    -8.774 KCAL
    C        0.00019       -0.00099        0.00008
    H        1.11177        0.00744       -0.00093
    H       -0.36744        1.05014        0.00101
    H       -0.37359       -0.52340        0.91069
    H       -0.37151       -0.52301       -0.91155
     5 
Profile.  26 HEAT OF FORMATION =    -8.700 KCAL
    C        0.00305       -0.00264        0.00045
    H        1.11284        0.01461       -0.00262
    H       -0.37705        1.04512       -0.00071
    H       -0.38687       -0.51528        0.90744
    H       -0.38387       -0.51354       -0.90929
     5 
Profile.  27 HEAT OF FORMATION =    -8.494 KCAL
    C        0.00585       -0.00425        0.00081
    H        1.11389        0.02155       -0.00427
    H       -0.38653        1.04009       -0.00240
    H       -0.39985       -0.50728        0.90413
    H       -0.39597       -0.50420       -0.90695
     5 
Profile.  28 HEAT OF FORMATION =    -8.172 KCAL
    C        0.00855       -0.00578        0.00115
    H        1.11492        0.02814       -0.00584
    H       -0.39573        1.03516       -0.00405
    H       -0.41235       -0.49960        0.90092
    H       -0.40765       -0.49521       -0.90467
     5 
Profile.  29 HEAT OF FORMATION =    -7.757 KCAL
    C        0.01112       -0.00721        0.00148
    H        1.11592        0.03427       -0.00731
    H       -0.40451        1.03047       -0.00562
    H       -0.42420       -0.49241        0.89796
    H       -0.41875       -0.48677       -0.90258
     5 
Profile.  30 HEAT OF FORMATION =    -7.279 KCAL
    C        0.01351       -0.00851        0.00178
    H        1.11687        0.03986       -0.00866
    H       -0.41271        1.02613       -0.00709
    H       -0.43524       -0.48587        0.89538
    H       -0.42910       -0.47904       -0.90078
     5 
Profile.  31 HEAT OF FORMATION =    -6.771 KCAL
    C        0.01569       -0.00965        0.00205
    H        1.11777        0.04482       -0.00986
    H       -0.42020        1.02225       -0.00843
    H       -0.44529       -0.48011        0.89327
    H       -0.43855       -0.47219       -0.89937
     5 
Profile.  32 HEAT OF FORMATION =    -6.269 KCAL
    C        0.01762       -0.01063        0.00229
    H        1.11859        0.04908       -0.01090
    H       -0.42683        1.01891       -0.00961
    H       -0.45420       -0.47525        0.89170
    H       -0.44695       -0.46633       -0.89839
     5 
Profile.  33 HEAT OF FORMATION =    -5.806 KCAL
    C        0.01927       -0.01141        0.00248
    H        1.11932        0.05257       -0.01175
    H       -0.43250        1.01617       -0.01063
    H       -0.46182       -0.47133        0.89067
    H       -0.45415       -0.46156       -0.89783
     5 
Profile.  34 HEAT OF FORMATION =    -5.412 KCAL
    C        0.02061       -0.01201        0.00264
    H        1.11993        0.05524       -0.01242
    H       -0.43710        1.01409       -0.01146
    H       -0.46800       -0.46843        0.89017
    H       -0.46001       -0.45794       -0.89769
     5 
Profile.  35 HEAT OF FORMATION =    -5.113 KCAL
    C        0.02160       -0.01240        0.00275
    H        1.12042        0.05704       -0.01288
    H       -0.44052        1.01269       -0.01208
    H       -0.47258       -0.46655        0.89016
    H       -0.46439       -0.45551       -0.89792
     5 
Profile.  36 HEAT OF FORMATION =    -4.928 KCAL
    C        0.02223       -0.01259        0.00281
    H        1.12075        0.05796       -0.01314
    H       -0.44271        1.01196       -0.01248
    H       -0.47548       -0.46568        0.89058
    H       -0.46721       -0.45427       -0.89845
     5 
Profile.  37 HEAT OF FORMATION =    -4.871 KCAL
    C        0.02247       -0.01258        0.00283
    H        1.12091        0.05798       -0.01318
    H       -0.44360        1.01189       -0.01266
    H       -0.47660       -0.46582        0.89133
    H       -0.46836       -0.45421       -0.89920
     5 
Profile.  38 HEAT OF FORMATION =    -4.947 KCAL
    C        0.02232       -0.01237        0.00280
    H        1.12089        0.05709       -0.01300
    H       -0.44317        1.01247       -0.01261
    H       -0.47587       -0.46691        0.89233
    H       -0.46779       -0.45531       -0.90008
     5 
Profile.  39 HEAT OF FORMATION =    -5.151 KCAL
    C        0.02178       -0.01196        0.00273
    H        1.12070        0.05531       -0.01262
    H       -0.44143        1.01365       -0.01233
    H       -0.47330       -0.46891        0.89352
    H       -0.46550       -0.45751       -0.90104
     5 
Profile.  40 HEAT OF FORMATION =    -5.468 KCAL
    C        0.02086       -0.01137        0.00261
    H        1.12033        0.05266       -0.01203
    H       -0.43841        1.01539       -0.01184
    H       -0.46892       -0.47177        0.89482
    H       -0.46151       -0.46076       -0.90201
     5 
Profile.  41 HEAT OF FORMATION =    -5.880 KCAL
    C        0.01956       -0.01061        0.00244
    H        1.11979        0.04918       -0.01124
    H       -0.43416        1.01766       -0.01113
    H       -0.46279       -0.47542        0.89620
    H       -0.45589       -0.46499       -0.90295
     5 
Profile.  42 HEAT OF FORMATION =    -6.357 KCAL
    C        0.01791       -0.00968        0.00224
    H        1.11909        0.04493       -0.01028
    H       -0.42876        1.02039       -0.01022
    H       -0.45502       -0.47980        0.89761
    H       -0.44874       -0.47012       -0.90384
     5 
Profile.  43 HEAT OF FORMATION =    -6.867 KCAL
    C        0.01594       -0.00861        0.00200
    H        1.11825        0.03996       -0.00914
    H       -0.42231        1.02355       -0.00912
    H       -0.44574       -0.48483        0.89904
    H       -0.44017       -0.47608       -0.90465
     5 
Profile.  44 HEAT OF FORMATION =    -7.374 KCAL
    C        0.01369       -0.00740        0.00173
    H        1.11728        0.03434       -0.00786
    H       -0.41494        1.02708       -0.00787
    H       -0.43512       -0.49046        0.90048
    H       -0.43034       -0.48276       -0.90539
     5 
Profile.  45 HEAT OF FORMATION =    -7.843 KCAL
    C        0.01119       -0.00608        0.00143
    H        1.11621        0.02817       -0.00644
    H       -0.40677        1.03094       -0.00647
    H       -0.42335       -0.49659        0.90192
    H       -0.41945       -0.49007       -0.90607
     5 
Profile.  46 HEAT OF FORMATION =    -8.243 KCAL
    C        0.00850       -0.00466        0.00111
    H        1.11507        0.02154       -0.00492
    H       -0.39796        1.03506       -0.00495
    H       -0.41066       -0.50314        0.90339
    H       -0.40769       -0.49790       -0.90670
     5 
Profile.  47 HEAT OF FORMATION =    -8.545 KCAL
    C        0.00566       -0.00317        0.00076
    H        1.11387        0.01456       -0.00331
    H       -0.38869        1.03938       -0.00334
    H       -0.39729       -0.51002        0.90487
    H       -0.39529       -0.50613       -0.90731
     5 
Profile.  48 HEAT OF FORMATION =    -8.732 KCAL
    C        0.00271       -0.00162        0.00041
    H        1.11264        0.00731       -0.00165
    H       -0.37908        1.04386       -0.00167
    H       -0.38343       -0.51715        0.90637
    H       -0.38243       -0.51466       -0.90791
     5 
Profile.  49 HEAT OF FORMATION =    -8.790 KCAL
    C       -0.00028       -0.00005        0.00004
    H        1.11140       -0.00005        0.00004
    H       -0.36933        1.04841        0.00004
    H       -0.36935       -0.52439        0.90789
    H       -0.36937       -0.52334       -0.90850
     5 
Profile.  50 HEAT OF FORMATION =    -8.715 KCAL
    C       -0.00327        0.00152       -0.00032
    H        1.11017       -0.00742        0.00174
    H       -0.35960        1.05297        0.00176
    H       -0.35530       -0.53164        0.90941
    H       -0.35633       -0.53203       -0.90909
     5 
Profile.  51 HEAT OF FORMATION =    -8.513 KCAL
    C       -0.00620        0.00307       -0.00068
    H        1.10897       -0.01466        0.00340
    H       -0.35005        1.05744        0.00345
    H       -0.34151       -0.53877        0.91088
    H       -0.34352       -0.54057       -0.90964
     5 
Profile.  52 HEAT OF FORMATION =    -8.200 KCAL
    C       -0.00903        0.00456       -0.00103
    H        1.10783       -0.02164        0.00501
    H       -0.34086        1.06174        0.00509
    H       -0.32823       -0.54562        0.91227
    H       -0.33118       -0.54879       -0.91015
     5 
Profile.  53 HEAT OF FORMATION =    -7.794 KCAL
    C       -0.01171        0.00597       -0.00136
    H        1.10674       -0.02825        0.00653
    H       -0.33214        1.06579        0.00665
    H       -0.31563       -0.55210        0.91354
    H       -0.31947       -0.55656       -0.91057
     5 
Profile.  54 HEAT OF FORMATION =    -7.324 KCAL
    C       -0.01420        0.00727       -0.00166
    H        1.10572       -0.03437        0.00794
    H       -0.32404        1.06952        0.00811
    H       -0.30393       -0.55806        0.91463
    H       -0.30859       -0.56373       -0.91087
     5 
Profile.  55 HEAT OF FORMATION =    -6.821 KCAL
    C       -0.01646        0.00844       -0.00194
    H        1.10479       -0.03990        0.00921
    H       -0.31667        1.07284        0.00944
    H       -0.29331       -0.56339        0.91548
    H       -0.29869       -0.57016       -0.91101
     5 
Profile.  56 HEAT OF FORMATION =    -6.319 KCAL
    C       -0.01846        0.00946       -0.00219
    H        1.10396       -0.04472        0.01033
    H       -0.31015        1.07569        0.01062
    H       -0.28393       -0.56796        0.91607
    H       -0.28995       -0.57572       -0.91098
     5 
Profile.  57 HEAT OF FORMATION =    -5.853 KCAL
    C       -0.02016        0.01030       -0.00239
    H        1.10324       -0.04876        0.01127
    H       -0.30456        1.07802        0.01164
    H       -0.27596       -0.57170        0.91636
    H       -0.28248       -0.58030       -0.91075
     5 
Profile.  58 HEAT OF FORMATION =    -5.452 KCAL
    C       -0.02155        0.01095       -0.00256
    H        1.10264       -0.05193        0.01201
    H       -0.30001        1.07978        0.01247
    H       -0.26951       -0.57454        0.91635
    H       -0.27643       -0.58383       -0.91033
     5 
Profile.  59 HEAT OF FORMATION =    -5.144 KCAL
    C       -0.02259        0.01141       -0.00268
    H        1.10219       -0.05417        0.01254
    H       -0.29654        1.08095        0.01310
    H       -0.26471       -0.57642        0.91604
    H       -0.27188       -0.58623       -0.90973
     5 
Profile.  60 HEAT OF FORMATION =    -4.946 KCAL
    C       -0.02326        0.01165       -0.00276
    H        1.10188       -0.05545        0.01285
    H       -0.29422        1.08152        0.01353
    H       -0.26163       -0.57733        0.91547
    H       -0.26891       -0.58750       -0.90899
     5 
Profile.  61 HEAT OF FORMATION =    -4.872 KCAL
    C       -0.02357        0.01168       -0.00279
    H        1.10175       -0.05574        0.01294
    H       -0.29307        1.08152        0.01374
    H       -0.26034       -0.57728        0.91470
    H       -0.26760       -0.58763       -0.90817
     5 
Profile.  62 HEAT OF FORMATION =    -4.926 KCAL
    C       -0.02350        0.01151       -0.00277
    H        1.10179       -0.05501        0.01281
    H       -0.29314        1.08095        0.01374
    H       -0.26088       -0.57629        0.91378
    H       -0.26797       -0.58664       -0.90734
     5 
Profile.  63 HEAT OF FORMATION =    -5.105 KCAL
    C       -0.02303        0.01112       -0.00270
    H        1.10203       -0.05327        0.01244
    H       -0.29444        1.07986        0.01351
    H       -0.26330       -0.57441        0.91279
    H       -0.27008       -0.58457       -0.90656
     5 
Profile.  64 HEAT OF FORMATION =    -5.391 KCAL
    C       -0.02220        0.01056       -0.00259
    H        1.10245       -0.05060        0.01186
    H       -0.29692        1.07833        0.01308
    H       -0.26749       -0.57177        0.91185
    H       -0.27383       -0.58156       -0.90594
     5 
Profile.  65 HEAT OF FORMATION =    -5.774 KCAL
    C       -0.02099        0.00981       -0.00244
    H        1.10306       -0.04699        0.01108
    H       -0.30060        1.07638        0.01243
    H       -0.27351       -0.56839        0.91103
    H       -0.27928       -0.57764       -0.90556
     5 
Profile.  66 HEAT OF FORMATION =    -6.226 KCAL
    C       -0.01943        0.00891       -0.00224
    H        1.10385       -0.04255        0.01010
    H       -0.30540        1.07411        0.01160
    H       -0.28119       -0.56441        0.91041
    H       -0.28628       -0.57296       -0.90547
     5 
Profile.  67 HEAT OF FORMATION =    -6.719 KCAL
    C       -0.01753        0.00787       -0.00201
    H        1.10480       -0.03735        0.00894
    H       -0.31128        1.07154        0.01058
    H       -0.29045       -0.55992        0.91002
    H       -0.29476       -0.56760       -0.90571
     5 
Profile.  68 HEAT OF FORMATION =    -7.221 KCAL
    C       -0.01534        0.00671       -0.00174
    H        1.10586       -0.03148        0.00764
    H       -0.31812        1.06874        0.00939
    H       -0.30114       -0.55498        0.90989
    H       -0.30457       -0.56165       -0.90629
     5 
Profile.  69 HEAT OF FORMATION =    -7.700 KCAL
    C       -0.01287        0.00544       -0.00144
    H        1.10702       -0.02506        0.00621
    H       -0.32585        1.06574        0.00806
    H       -0.31306       -0.54968        0.90998
    H       -0.31556       -0.55521       -0.90716
     5 
Profile.  70 HEAT OF FORMATION =    -8.122 KCAL
    C       -0.01018        0.00409       -0.00112
    H        1.10824       -0.01820        0.00467
    H       -0.33432        1.06255        0.00660
    H       -0.32603       -0.54408        0.91025
    H       -0.32753       -0.54835       -0.90826
     5 
Profile.  71 HEAT OF FORMATION =    -8.456 KCAL
    C       -0.00731        0.00268       -0.00079
    H        1.10947       -0.01103        0.00305
    H       -0.34339        1.05920        0.00505
    H       -0.33979       -0.53823        0.91062
    H       -0.34026       -0.54115       -0.90951
     5 
Profile.  72 HEAT OF FORMATION =    -8.677 KCAL
    C       -0.00432        0.00123       -0.00044
    H        1.11068       -0.00367        0.00139
    H       -0.35292        1.05570        0.00341
    H       -0.35408       -0.53218        0.91098
    H       -0.35351       -0.53367       -0.91077
     5 
Profile.  73 HEAT OF FORMATION =    -8.770 KCAL
    C       -0.00125       -0.00025       -0.00008
    H        1.11184        0.00374       -0.00029
    H       -0.36274        1.05204        0.00173
    H       -0.36864       -0.52595        0.91122
    H       -0.36701       -0.52597       -0.91192
     5 
Profile.  74 HEAT OF FORMATION =    -8.727 KCAL
    C        0.00183       -0.00172        0.00028
    H        1.11293        0.01107       -0.00197
    H       -0.37265        1.04823        0.00003
    H       -0.38316       -0.51961        0.91120
    H       -0.38051       -0.51813       -0.91283
     5 
Profile.  75 HEAT OF FORMATION =    -8.553 KCAL
    C        0.00486       -0.00319        0.00064
    H        1.11393        0.01821       -0.00360
    H       -0.38249        1.04428       -0.00166
    H       -0.39737       -0.51319        0.91084
    H       -0.39373       -0.51022       -0.91338
     5 
Profile.  76 HEAT OF FORMATION =    -8.264 KCAL
    C        0.00779       -0.00462        0.00098
    H        1.11482        0.02502       -0.00517
    H       -0.39208        1.04022       -0.00332
    H       -0.41098       -0.50675        0.91002
    H       -0.40641       -0.50232       -0.91346
     5 
Profile.  77 HEAT OF FORMATION =    -7.882 KCAL
    C        0.01054       -0.00599        0.00131
    H        1.11562        0.03141       -0.00665
    H       -0.40123        1.03608       -0.00491
    H       -0.42373       -0.50037        0.90871
    H       -0.41830       -0.49453       -0.91301
     5 
Profile.  78 HEAT OF FORMATION =    -7.435 KCAL
    C        0.01308       -0.00728        0.00161
    H        1.11633        0.03727       -0.00801
    H       -0.40979        1.03192       -0.00640
    H       -0.43537       -0.49412        0.90687
    H       -0.42917       -0.48696       -0.91199
     5 
Profile.  79 HEAT OF FORMATION =    -6.955 KCAL
    C        0.01535       -0.00848        0.00190
    H        1.11696        0.04251       -0.00924
    H       -0.41759        1.02780       -0.00776
    H       -0.44571       -0.48811        0.90454
    H       -0.43884       -0.47975       -0.91042
     5 
Profile.  80 HEAT OF FORMATION =    -6.472 KCAL
    C        0.01732       -0.00956        0.00214
    H        1.11752        0.04706       -0.01031
    H       -0.42451        1.02384       -0.00899
    H       -0.45458       -0.48246        0.90179
    H       -0.44715       -0.47302       -0.90837
     5 
Profile.  81 HEAT OF FORMATION =    -6.016 KCAL
    C        0.01894       -0.01050        0.00236
    H        1.11803        0.05086       -0.01121
    H       -0.43043        1.02012       -0.01004
    H       -0.46184       -0.47730        0.89872
    H       -0.45397       -0.46694       -0.90592
     5 
Profile.  82 HEAT OF FORMATION =    -5.612 KCAL
    C        0.02021       -0.01129        0.00254
    H        1.11849        0.05385       -0.01192
    H       -0.43526        1.01678       -0.01091
    H       -0.46742       -0.47278        0.89551
    H       -0.45922       -0.46165       -0.90324
     5 
Profile.  83 HEAT OF FORMATION =    -5.284 KCAL
    C        0.02110       -0.01191        0.00267
    H        1.11890        0.05599       -0.01244
    H       -0.43893        1.01393       -0.01157
    H       -0.47127       -0.46902        0.89233
    H       -0.46288       -0.45730       -0.90049
     5 
Profile.  84 HEAT OF FORMATION =    -5.050 KCAL
    C        0.02162       -0.01233        0.00276
    H        1.11927        0.05726       -0.01275
    H       -0.44140        1.01172       -0.01203
    H       -0.47340       -0.46618        0.88940
    H       -0.46493       -0.45405       -0.89787
     5 
Profile.  85 HEAT OF FORMATION =    -4.928 KCAL
    C        0.02177       -0.01255        0.00280
    H        1.11959        0.05765       -0.01286
    H       -0.44263        1.01025       -0.01226
    H       -0.47384       -0.46438        0.88690
    H       -0.46540       -0.45203       -0.89558
     5 
Profile.  86 HEAT OF FORMATION =    -4.928 KCAL
    C        0.02156       -0.01257        0.00280
    H        1.11983        0.05714       -0.01275
    H       -0.44263        1.00961       -0.01226
    H       -0.47266       -0.46374        0.88506
    H       -0.46436       -0.45134       -0.89381
     5 
Profile.  87 HEAT OF FORMATION =    -5.058 KCAL
    C        0.02100       -0.01235        0.00275
    H        1.11998        0.05576       -0.01243
    H       -0.44140        1.00988       -0.01204
    H       -0.46992       -0.46434        0.88404
    H       -0.46188       -0.45207       -0.89273
     5 
Profile.  88 HEAT OF FORMATION =    -5.314 KCAL
    C        0.02012       -0.01192        0.00265
    H        1.12001        0.05352       -0.01190
    H       -0.43899        1.01108       -0.01159
    H       -0.46575       -0.46623        0.88397
    H       -0.45804       -0.45425       -0.89245
     5 
Profile.  89 HEAT OF FORMATION =    -5.684 KCAL
    C        0.01893       -0.01127        0.00250
    H        1.11991        0.05045       -0.01118
    H       -0.43544        1.01320       -0.01093
    H       -0.46023       -0.46942        0.88492
    H       -0.45295       -0.45788       -0.89307
     5 
Profile.  90 HEAT OF FORMATION =    -6.142 KCAL
    C        0.01747       -0.01040        0.00231
    H        1.11964        0.04662       -0.01026
    H       -0.43081        1.01620       -0.01007
    H       -0.45347       -0.47384        0.88688
    H       -0.44670       -0.46291       -0.89456
     5 
Profile.  91 HEAT OF FORMATION =    -6.654 KCAL
    C        0.01576       -0.00934        0.00208
    H        1.11920        0.04207       -0.00918
    H       -0.42517        1.01996       -0.00902
    H       -0.44557       -0.47942        0.88977
    H       -0.43938       -0.46922       -0.89686
     5 
Profile.  92 HEAT OF FORMATION =    -7.178 KCAL
    C        0.01381       -0.00809        0.00182
    H        1.11857        0.03688       -0.00794
    H       -0.41863        1.02436       -0.00779
    H       -0.43661       -0.48599        0.89342
    H       -0.43107       -0.47666       -0.89981
     5 
Profile.  93 HEAT OF FORMATION =    -7.672 KCAL
    C        0.01165       -0.00669        0.00152
    H        1.11773        0.03111       -0.00656
    H       -0.41126        1.02924       -0.00642
    H       -0.42667       -0.49338        0.89762
    H       -0.42185       -0.48503       -0.90323
     5 
Profile.  94 HEAT OF FORMATION =    -8.095 KCAL
    C        0.00930       -0.00517        0.00120
    H        1.11670        0.02486       -0.00507
    H       -0.40317        1.03442       -0.00492
    H       -0.41584       -0.50138        0.90212
    H       -0.41179       -0.49411       -0.90688
     5 
Profile.  95 HEAT OF FORMATION =    -8.416 KCAL
    C        0.00679       -0.00356        0.00086
    H        1.11548        0.01822       -0.00348
    H       -0.39450        1.03973       -0.00331
    H       -0.40423       -0.50974        0.90664
    H       -0.40100       -0.50364       -0.91051
     5 
Profile.  96 HEAT OF FORMATION =    -8.618 KCAL
    C        0.00415       -0.00189        0.00050
    H        1.11410        0.01128       -0.00183
    H       -0.38537        1.04499       -0.00163
    H       -0.39195       -0.51822        0.91092
    H       -0.38959       -0.51337       -0.91387
     5 
Profile.  97 HEAT OF FORMATION =    -8.692 KCAL
    C        0.00141       -0.00021        0.00013
    H        1.11257        0.00417       -0.00013
    H       -0.37592        1.05006        0.00010
    H       -0.37915       -0.52659        0.91471
    H       -0.37769       -0.52303       -0.91673
